LAMMPS (17 Nov 2016)
# Affiliation: Dept. Materials Science and Engineering
# University of Arizona
# Abduljabar Alsayoud

# Units energy:eV time:ps distance:angstrom flux:energy*velocity
#---------Sim variables---------------
variable fileprefix string  nve
variable temp_s equal '300.0'
variable press_s equal '0.0'

#-----------Setup----------------------
units metal            #Energy = eV , Distance= Angstroms
dimension 3
boundary p p p         #Periodic boundary conditions
atom_style atomic

# Read config files

read_data AlNVTfinal.data
  orthogonal box = (-16.4064 -16.4064 -16.4064) to (24.4562 24.4562 24.4562)
  reading atoms ...
  4000 atoms

pair_style eam/alloy
pair_coeff * *  AlCu.eam.alloy Al
Reading potential file AlCu.eam.alloy with DATE: 2008-10-01
neighbor 2.0 bin
neigh_modify delay 10 check yes

#--------- NPT-------
reset_timestep 0
timestep 0.001

thermo 1000

thermo_style custom step pe ke etotal enthalpy temp vol press

velocity all create 300 1518772

fix 1 all nve
dump 2 all atom 2000 dump.nvenve
compute 3 all vacf
fix 4 all ave/time 2 1 2 c_3[1] c_3[2] c_3[3] c_3[4]  file nve.data
run 60000
  1 neighbor list requests
  update every 1 steps, delay 10 steps, check yes
Step PotEng KinEng TotEng Enthalpy Temp Volume Press
0   -13110.132     155.0734   -12955.059   -12975.607          300    68230.709     -482.493
Averages over the last 31 of 61 rows, steps 30000 to 60000:
PotEng KinEng TotEng Enthalpy Temp Volume Press
-13109.1 154.069 -12955.1 -12970.4 298.056 68230.7 -361.044
Loop time of 5014.25 on 28 procs for 60000 steps with 4000 atoms

unfix 1
undump 2
unfix 4

######################################
# SIMULATION DONE
print "All done"
All done
