LAMMPS (17 Nov 2016)
# Affiliation: Dept. Materials Science and Engineering
# University of Arizona
# Abduljabar Alsayoud

# Units energy:eV time:ps distance:angstrom flux:energy*velocity
#---------Sim variables---------------
variable fileprefix string  npt300
variable temp_s equal '300.0'
variable press_s equal '1.0'

#-----------Setup----------------------
units metal            #Energy = eV , Distance= Angstroms
dimension 3
boundary p p p         #Periodic boundary conditions
atom_style atomic

# Read config files

read_data Al10X10X10.data
  orthogonal box = (-16.2239 -16.2239 -16.2239) to (24.2737 24.2737 24.2737)
  reading atoms ...
  4000 atoms
  reading velocities ...
  4000 velocities

pair_style eam/alloy
pair_coeff * *  AlCu.eam.alloy Al
Reading potential file AlCu.eam.alloy with DATE: 2008-10-01
neighbor 2.0 bin
neigh_modify delay 10 check yes

#--------- NPT-------
reset_timestep 0
timestep 0.001

thermo 1000
thermo_style custom step pe ke etotal enthalpy temp vol press
velocity all create 300 1518772
fix 1 all npt temp 300 300 0.5 iso 1 1 5
dump 2 all atom 2000 dump.nptnpt300
run 60000
  1 neighbor list requests
  update every 1 steps, delay 10 steps, check yes
Step PotEng KinEng TotEng Enthalpy Temp Volume Press
0   -13202.856     155.0734   -13047.783   -13110.489          300    66418.488   -1512.6225
Averages over the last 31 of 61 rows, steps 30000 to 60000:
PotEng KinEng TotEng Enthalpy Temp Volume Press
-13109 155.716 -12953.3 -12949.2 301.244 68190.3 97.0254
Loop time of 6131.91 on 28 procs for 60000 steps with 4000 atoms

unfix 1
undump 2

######################################
# SIMULATION DONE
print "All done"
All done
