LAMMPS (17 Nov 2016)
# Affiliation: Dept. Materials Science and Engineering
# University of Arizona
# Abduljabar Alsayoud

# Units energy:eV time:ps distance:angstrom flux:energy*velocity
#---------Sim variables---------------
variable fileprefix string  nvt300
variable temp_s equal '300.0'

#-----------Setup----------------------
units metal            #Energy = eV , Distance= Angstroms
dimension 3
boundary p p p         #Periodic boundary conditions
atom_style atomic

# Read config files

read_data AlNPTfinal.data
  orthogonal box = (-16.4064 -16.4064 -16.4064) to (24.4562 24.4562 24.4562)
  reading atoms ...
  4000 atoms

pair_style eam/alloy
pair_coeff * *  AlCu.eam.alloy Al
Reading potential file AlCu.eam.alloy with DATE: 2008-10-01
neighbor 2.0 bin
neigh_modify delay 10 check yes

#--------- NPT-------
reset_timestep 0
timestep 0.001

thermo 1000
thermo_style custom step pe ke etotal enthalpy temp vol press
velocity all create 300 1518772
fix 1 all nvt temp 300 300 0.5
dump 2 all atom 2000 dump.nvtnvt300
run 60000
  1 neighbor list requests
  update every 1 steps, delay 10 steps, check yes
Step PotEng KinEng TotEng Enthalpy Temp Volume Press
0    -13108.43     155.0734   -12953.356   -12964.228          300    68230.709    -255.2959
Averages over the last 31 of 61 rows, steps 30000 to 60000:
PotEng KinEng TotEng Enthalpy Temp Volume Press
-13108.7 155.037 -12953.7 -12966.5 299.929 68230.7 -300.782
Loop time of 4601.47 on 28 procs for 60000 steps with 4000 atoms

unfix 1
undump 2

######################################
# SIMULATION DONE
print "All done"
All done
